REMARK  7 active torsions:
REMARK  status: ('A' for Active; 'I' for Inactive)
REMARK    1  A    between atoms: C_1  and  N_2 
REMARK    2  A    between atoms: C_1  and  C_3 
REMARK    3  A    between atoms: C_1  and  C_4 
REMARK    4  A    between atoms: N_2  and  C_5 
REMARK    5  A    between atoms: C_6  and  O_12 
REMARK    6  A    between atoms: C_10  and  C_17 
REMARK    7  A    between atoms: C_17  and  O_24 
ROOT
ATOM      1  C   UNK     1      -0.217   1.042  -0.119  1.00  0.00     0.151 C 
ENDROOT
BRANCH   1   2
ATOM      2  N   UNK     1      -0.332  -0.052   0.848  1.00  0.00    -0.376 N 
ATOM      3  H   UNK     1      -0.660   0.124   1.744  1.00  0.00     0.160 HD
BRANCH   2   4
ATOM      4  C   UNK     1       0.027  -1.342   0.482  1.00  0.00     0.045 A 
ATOM      5  C   UNK     1      -0.251  -2.422   1.335  1.00  0.00     0.064 A 
ATOM      6  C   UNK     1       0.116  -3.716   0.954  1.00  0.00     0.020 A 
ATOM      7  C   UNK     1       0.747  -3.923  -0.252  1.00  0.00     0.001 A 
ATOM      8  C   UNK     1       1.016  -2.856  -1.095  1.00  0.00     0.002 A 
ATOM      9  C   UNK     1       0.660  -1.573  -0.734  1.00  0.00     0.030 A 
BRANCH   5  10
ATOM     10  C   UNK     1      -0.927  -2.193   2.624  1.00  0.00     0.178 C 
ATOM     11  O   UNK     1      -1.245  -1.066   2.952  1.00  0.00    -0.646 OA
BRANCH  10  12
ATOM     12  O   UNK     1      -1.192  -3.232   3.440  1.00  0.00    -0.773 OA
ATOM     13  H   UNK     1      -1.635  -3.082   4.286  1.00  0.00     0.167 HD
ENDBRANCH  10  12
ENDBRANCH   5  10
ENDBRANCH   2   4
ENDBRANCH   1   2
BRANCH   1  14
ATOM     14  C   UNK     1       1.231   1.236  -0.488  1.00  0.00     0.004 A 
ATOM     15  C   UNK     1       1.573   2.210  -1.382  1.00  0.00     0.103 A 
ATOM     16  C   UNK     1       2.928   2.394  -1.730  1.00  0.00     0.100 A 
ATOM     17  C   UNK     1       3.908   1.558  -1.141  1.00  0.00    -0.004 A 
ATOM     18  N   UNK     1       3.294   3.338  -2.602  1.00  0.00    -0.257 NA
ATOM     19  C   UNK     1       3.518   0.571  -0.222  1.00  0.00     0.014 A 
ATOM     20  C   UNK     1       5.260   1.742  -1.490  1.00  0.00     0.015 A 
ATOM     21  C   UNK     1       2.201   0.422   0.091  1.00  0.00     0.013 A 
ATOM     22  C   UNK     1       5.566   2.726  -2.386  1.00  0.00     0.020 A 
ATOM     23  C   UNK     1       4.551   3.512  -2.929  1.00  0.00     0.117 A 
BRANCH  15  24
ATOM     24  O   UNK     1       0.613   2.999  -1.932  1.00  0.00    -0.358 OA
ATOM     25  H   UNK     1       0.858   3.688  -2.565  1.00  0.00     0.217 HD
ENDBRANCH  15  24
ENDBRANCH   1  14
BRANCH   1  26
ATOM     26  C   UNK     1      -1.010   0.707  -1.355  1.00  0.00    -0.031 A 
ATOM     27  C   UNK     1      -2.380   0.539  -1.273  1.00  0.00     0.009 A 
ATOM     28  C   UNK     1      -3.108   0.231  -2.407  1.00  0.00     0.001 A 
ATOM     29  C   UNK     1      -2.466   0.091  -3.623  1.00  0.00     0.000 A 
ATOM     30  C   UNK     1      -1.097   0.263  -3.706  1.00  0.00     0.001 A 
ATOM     31  C   UNK     1      -0.369   0.571  -2.572  1.00  0.00     0.009 A 
ENDBRANCH   1  26
TORSDOF 5
