REMARK  3 active torsions:
REMARK  status: ('A' for Active; 'I' for Inactive)
REMARK    1  A    between atoms: C_1  and  C_2 
REMARK    2  A    between atoms: C_1  and  C_3 
REMARK    3  A    between atoms: C_2  and  C_6 
ROOT
ATOM      1  C   UNK     1       0.002  -0.004   0.002  1.00  0.00     0.148 A 
ATOM      2  C   UNK     1       0.722  -0.517  -1.228  1.00  0.00     0.259 A 
ATOM      3  N   UNK     1       0.800  -0.514   1.129  1.00  0.00    -0.320 N 
ATOM      4  O   UNK     1       0.410  -0.334  -2.385  1.00  0.00    -0.270 OA
ATOM      5  N   UNK     1       1.792  -1.226  -0.769  1.00  0.00    -0.277 N 
ATOM      6  C   UNK     1       1.833  -1.222   0.595  1.00  0.00     0.324 A 
ATOM      7  O   UNK     1       2.688  -1.781   1.253  1.00  0.00    -0.247 OA
ATOM      8  H   UNK     1       0.624  -0.373   2.072  1.00  0.00     0.165 HD
ATOM      9  H   UNK     1       2.438  -1.675  -1.336  1.00  0.00     0.173 HD
ENDROOT
BRANCH   1  10
ATOM     10  C   UNK     1      -0.019   1.526   0.010  1.00  0.00     0.085 C 
BRANCH  10  11
ATOM     11  C   UNK     1       1.395   2.047  -0.000  1.00  0.00    -0.055 A 
ATOM     12  C   UNK     1       2.032   2.293  -1.202  1.00  0.00     0.007 A 
ATOM     13  C   UNK     1       3.329   2.772  -1.212  1.00  0.00     0.001 A 
ATOM     14  C   UNK     1       3.989   3.005  -0.020  1.00  0.00     0.000 A 
ATOM     15  C   UNK     1       3.350   2.764   1.182  1.00  0.00     0.001 A 
ATOM     16  C   UNK     1       2.053   2.286   1.192  1.00  0.00     0.007 A 
ENDBRANCH  10  11
ENDBRANCH   1  10
BRANCH   1  17
ATOM     17  C   UNK     1      -1.402  -0.549   0.057  1.00  0.00    -0.003 A 
ATOM     18  C   UNK     1      -1.624  -1.918   0.059  1.00  0.00     0.013 A 
ATOM     19  C   UNK     1      -2.932  -2.374   0.112  1.00  0.00     0.020 A 
ATOM     20  C   UNK     1      -3.964  -1.456   0.159  1.00  0.00     0.116 A 
ATOM     21  N   UNK     1      -3.715  -0.161   0.161  1.00  0.00    -0.272 NA
ATOM     22  C   UNK     1      -2.484   0.308   0.112  1.00  0.00     0.126 A 
ENDBRANCH   1  17
TORSDOF 3
