REMARK  7 active torsions:
REMARK  status: ('A' for Active; 'I' for Inactive)
REMARK    1  A    between atoms: N_1  and  C_2 
REMARK    2  A    between atoms: N_1  and  C_3 
REMARK    3  A    between atoms: N_1  and  C_4 
REMARK    4  A    between atoms: C_2  and  C_5 
REMARK    5  A    between atoms: C_3  and  C_6 
REMARK    6  A    between atoms: C_5  and  O_10 
REMARK    7  A    between atoms: C_6  and  O_12 
ROOT
ATOM      1  N   UNK     1      -0.080   1.376  -0.073  1.00  0.00     0.112 N 
ENDROOT
BRANCH   1   2
ATOM      2  C   UNK     1       0.074  -0.074   0.104  1.00  0.00     0.382 C 
BRANCH   2   3
ATOM      3  C   UNK     1       0.909  -0.631  -1.021  1.00  0.00     0.169 C 
ATOM      4  O   UNK     1       1.392   0.113  -1.840  1.00  0.00    -0.649 OA
BRANCH   3   5
ATOM      5  O   UNK     1       1.114  -1.955  -1.112  1.00  0.00    -0.775 OA
ATOM      6  H   UNK     1       1.650  -2.312  -1.833  1.00  0.00     0.167 HD
ENDBRANCH   3   5
ENDBRANCH   2   3
ENDBRANCH   1   2
BRANCH   1   7
ATOM      7  C   UNK     1       1.273   1.931  -0.213  1.00  0.00     0.382 C 
BRANCH   7   8
ATOM      8  C   UNK     1       1.297   3.338   0.324  1.00  0.00     0.169 C 
ATOM      9  O   UNK     1       0.290   3.830   0.776  1.00  0.00    -0.649 OA
BRANCH   8  10
ATOM     10  O   UNK     1       2.437   4.047   0.299  1.00  0.00    -0.775 OA
ATOM     11  H   UNK     1       2.453   4.950   0.643  1.00  0.00     0.167 HD
ENDBRANCH   8  10
ENDBRANCH   7   8
ENDBRANCH   1   7
BRANCH   1  12
ATOM     12  C   UNK     1      -0.753   1.575  -1.363  1.00  0.00     0.216 C 
ATOM     13  C   UNK     1      -2.122   0.891  -1.335  1.00  0.00     0.042 C 
ATOM     14  C   UNK     1      -0.936   3.072  -1.618  1.00  0.00     0.042 C 
ENDBRANCH   1  12
TORSDOF 5
