REMARK  6 active torsions:
REMARK  status: ('A' for Active; 'I' for Inactive)
REMARK    1  A    between atoms: C_1  and  N_2 
REMARK    2  A    between atoms: C_1  and  C_3 
REMARK    3  A    between atoms: C_1  and  C_4 
REMARK    4  A    between atoms: N_2  and  C_5 
REMARK    5  A    between atoms: C_6  and  O_12 
REMARK    6  A    between atoms: C_21  and  N_25 
ROOT
ATOM      1  C   UNK     1      -0.018   1.461   0.010  1.00  0.00     0.151 C 
ENDROOT
BRANCH   1   2
ATOM      2  N   UNK     1       0.002  -0.004   0.002  1.00  0.00    -0.377 N 
ATOM      3  H   UNK     1       0.422  -0.479  -0.732  1.00  0.00     0.160 HD
BRANCH   2   4
ATOM      4  C   UNK     1      -0.583  -0.716   1.051  1.00  0.00     0.028 A 
ATOM      5  C   UNK     1      -0.565  -2.105   1.045  1.00  0.00     0.029 A 
ATOM      6  C   UNK     1      -1.145  -2.806   2.085  1.00  0.00     0.002 A 
ATOM      7  C   UNK     1      -1.742  -2.127   3.131  1.00  0.00     0.000 A 
ATOM      8  C   UNK     1      -1.757  -0.744   3.143  1.00  0.00     0.002 A 
ATOM      9  C   UNK     1      -1.179  -0.037   2.107  1.00  0.00     0.029 A 
ENDBRANCH   2   4
ENDBRANCH   1   2
BRANCH   1  10
ATOM     10  C   UNK     1       1.396   1.982  -0.001  1.00  0.00     0.004 A 
ATOM     11  C   UNK     1       1.831   2.767   1.029  1.00  0.00     0.103 A 
ATOM     12  C   UNK     1       3.154   3.257   1.022  1.00  0.00     0.100 A 
ATOM     13  C   UNK     1       4.006   2.922  -0.059  1.00  0.00    -0.004 A 
ATOM     14  N   UNK     1       3.610   4.027   2.014  1.00  0.00    -0.257 NA
ATOM     15  C   UNK     1       3.523   2.107  -1.096  1.00  0.00     0.014 A 
ATOM     16  C   UNK     1       5.325   3.411  -0.065  1.00  0.00     0.015 A 
ATOM     17  C   UNK     1       2.241   1.652  -1.057  1.00  0.00     0.013 A 
ATOM     18  C   UNK     1       5.727   4.193   0.980  1.00  0.00     0.020 A 
ATOM     19  C   UNK     1       4.838   4.486   2.012  1.00  0.00     0.117 A 
BRANCH  11  20
ATOM     20  O   UNK     1       0.995   3.074   2.054  1.00  0.00    -0.358 OA
ATOM     21  H   UNK     1       1.305   3.630   2.782  1.00  0.00     0.217 HD
ENDBRANCH  11  20
ENDBRANCH   1  10
BRANCH   1  22
ATOM     22  C   UNK     1      -0.747   1.960  -1.211  1.00  0.00    -0.031 A 
ATOM     23  C   UNK     1      -0.728   1.220  -2.378  1.00  0.00     0.012 A 
ATOM     24  C   UNK     1      -1.397   1.678  -3.498  1.00  0.00     0.037 A 
ATOM     25  C   UNK     1      -2.084   2.876  -3.450  1.00  0.00     0.102 A 
ATOM     26  C   UNK     1      -2.107   3.614  -2.282  1.00  0.00     0.037 A 
ATOM     27  C   UNK     1      -1.439   3.156  -1.162  1.00  0.00     0.012 A 
BRANCH  25  28
ATOM     28  N   UNK     1      -2.739   3.325  -4.548  1.00  0.00    -0.116 N 
ATOM     29  O   UNK     1      -3.345   4.380  -4.507  1.00  0.00    -0.532 OA
ATOM     30  O   UNK     1      -2.722   2.673  -5.577  1.00  0.00    -0.532 OA
ENDBRANCH  25  28
ENDBRANCH   1  22
TORSDOF 5
