REMARK  7 active torsions:
REMARK  status: ('A' for Active; 'I' for Inactive)
REMARK    1  A    between atoms: C_1  and  N_2 
REMARK    2  A    between atoms: C_1  and  C_3 
REMARK    3  A    between atoms: C_1  and  C_4 
REMARK    4  A    between atoms: N_2  and  C_5 
REMARK    5  A    between atoms: C_6  and  O_12 
REMARK    6  A    between atoms: C_22  and  C_25 
REMARK    7  A    between atoms: C_25  and  O_28 
ROOT
ATOM      1  C   UNK     1      -0.090   1.450  -0.032  1.00  0.00     0.151 C 
ENDROOT
BRANCH   1   2
ATOM      2  N   UNK     1      -0.259   0.015   0.209  1.00  0.00    -0.377 N 
ATOM      3  H   UNK     1      -0.637  -0.295   1.046  1.00  0.00     0.160 HD
BRANCH   2   4
ATOM      4  C   UNK     1       0.122  -0.902  -0.764  1.00  0.00     0.028 A 
ATOM      5  C   UNK     1      -0.108  -2.261  -0.565  1.00  0.00     0.030 A 
ATOM      6  C   UNK     1       0.269  -3.170  -1.528  1.00  0.00     0.020 A 
ATOM      7  C   UNK     1       0.882  -2.723  -2.703  1.00  0.00     0.037 A 
ATOM      8  C   UNK     1       1.104  -1.356  -2.896  1.00  0.00     0.020 A 
ATOM      9  C   UNK     1       0.728  -0.460  -1.937  1.00  0.00     0.030 A 
BRANCH   7  10
ATOM     10  C   UNK     1       1.288  -3.691  -3.738  1.00  0.00     0.176 C 
ATOM     11  O   UNK     1       1.090  -4.878  -3.571  1.00  0.00    -0.646 OA
BRANCH  10  12
ATOM     12  O   UNK     1       1.879  -3.259  -4.870  1.00  0.00    -0.773 OA
ATOM     13  H   UNK     1       2.145  -3.893  -5.549  1.00  0.00     0.167 HD
ENDBRANCH  10  12
ENDBRANCH   7  10
ENDBRANCH   2   4
ENDBRANCH   1   2
BRANCH   1  14
ATOM     14  C   UNK     1       1.372   1.757  -0.231  1.00  0.00     0.004 A 
ATOM     15  C   UNK     1       1.762   3.044  -0.471  1.00  0.00     0.103 A 
ATOM     16  C   UNK     1       3.130   3.334  -0.657  1.00  0.00     0.100 A 
ATOM     17  C   UNK     1       4.073   2.279  -0.591  1.00  0.00    -0.004 A 
ATOM     18  N   UNK     1       3.544   4.582  -0.894  1.00  0.00    -0.257 NA
ATOM     19  C   UNK     1       3.633   0.970  -0.336  1.00  0.00     0.014 A 
ATOM     20  C   UNK     1       5.437   2.571  -0.778  1.00  0.00     0.015 A 
ATOM     21  C   UNK     1       2.305   0.726  -0.161  1.00  0.00     0.013 A 
ATOM     22  C   UNK     1       5.793   3.868  -1.016  1.00  0.00     0.020 A 
ATOM     23  C   UNK     1       4.814   4.858  -1.069  1.00  0.00     0.117 A 
BRANCH  15  24
ATOM     24  O   UNK     1       0.839   4.038  -0.529  1.00  0.00    -0.358 OA
ATOM     25  H   UNK     1       1.118   4.948  -0.699  1.00  0.00     0.217 HD
ENDBRANCH  15  24
ENDBRANCH   1  14
BRANCH   1  26
ATOM     26  C   UNK     1      -0.859   1.847  -1.265  1.00  0.00    -0.031 A 
ATOM     27  C   UNK     1      -2.235   1.966  -1.213  1.00  0.00     0.009 A 
ATOM     28  C   UNK     1      -2.941   2.330  -2.345  1.00  0.00     0.001 A 
ATOM     29  C   UNK     1      -2.270   2.576  -3.528  1.00  0.00     0.000 A 
ATOM     30  C   UNK     1      -0.893   2.462  -3.579  1.00  0.00     0.001 A 
ATOM     31  C   UNK     1      -0.188   2.098  -2.447  1.00  0.00     0.009 A 
ENDBRANCH   1  26
TORSDOF 5
